Application/Grids/Polish_grid.AUX
//--------------------------------------------------------------------------------
//CASE INFORMATION
//--------------------------------------------------------------------------------
PWCaseInformation (CountBus,BusMaxVoltID,BusMinVoltID,MismatchPmaxID,MismatchQmaxID,BusMaxVolt,
   BusMinVolt,MismatchPmax,MismatchQmax,CountArea,CountZone,LossMW,LossMvar,
   LoadMW,LoadMWNeg,LoadMvar,LoadMvarNeg,ShuntMvar,GenMW,GenMWNeg,GenMvar,
   GenMvarNeg,BranchMaxPerc,PTDFLoss,PVMonLoadMW,PVMonLoadMvar,PVMonGenMW,
   PVMonGenMVar,CustomFloat:0,CustomFloat:1,CustomFloat:2,CustomFloat:3,
   CustomFloat:4,CountInterface,GenCost,GenMWPosSpinRes,GenMWNegSpinRes,
   CustomExpression:0,CustomExpression:1,CountSub,Selected,CountMTDC,SlackBuses,
   ShuntMW,CaseName,CasePath,PVMonLossMW,PVMonLossMvar,Memo,CustomString:0,
   CustomString:1,CustomString:2,CustomString:3,CustomString:4,PVMonShuntMvar,
   PVMonShuntMW,CountIsland,CalcField:0,CountGen,CountLoad,CountShunt,CountLine,
   CountSeriesCap,CountLTC,CountLTCMvar,CountPhase,CountBreaker,CountDisconnect,
   CountZBR,CountFuse,CountLoadBreakDisconnect,CountGroundDisconnect,CountDCLine,
   CountInjectionGroup,TSSaveAll,CustomInteger:0,CustomInteger:1,CustomInteger:2,
   CustomInteger:3,CustomInteger:4,ContainedInDiffFlowsBC,CustomExpressionStr:0,
   CustomExpressionStr:1,BranchMaxPercID,CaseTimestamp,InOutage,RankOverload,
   TSSaveGenMW,TSSaveGenMvar,TSSaveLoadMW,TSSaveLoadMvar,TSSaveGenMWAccel,
   TSSaveGenMWMech,TSGenMW,TSGenMvar,TSLoadMW,TSLoadMvar,TSGenMWAccel,
   TSGenMWMech,TSSaveDSMetric,TSDSMetric,TSSaveDSLoadMWUnserved,
   TSDSLoadMWUnserved,DistMW,DistMvar,TSSaveGICTotalMvarLosses,
   TSGICTotalMvarLosses,TSSaveGICMaximumTransformerIeffectiveAmps,
   TSGICMaximumTransformerIeffectiveAmps,DataCheck:0,DataCheckAggr:0,
   SolutionDetail,CalcFieldExtra:0,CountContingency)
{
  2746 "Bus '2497'" "Bus '172'" "" "" 1.125 0.967 0.000 0.000      4      6 333.235 -2936.872 18962.149 0.000 5534.485 0.000 154.007 19292.895 0.000 2751.620 0.000 95.194 0.000 "NO " "NO " "NO " "NO " "" "" "" "" ""      0 1209139.250 5182.572 2172.429 "" ""   1718 "NO "      0 "Belchatow (28) in Area 1 (1);" -2.489 "Polish_grid.AUX" "C:\Users\steph\PowerWorldCases\Polish_Grid\" "NO " "NO " "" "" "" "" "" "" "NO " "NO "      1 ""    514   1997      6   3340      0    171      0      1      0      0      0      0      0      0      0      0 "NO " "" "" "" "" "" "NO " "" "" "Branch '2086' '1981' '1'" "" "NONE" 122.831 "NO " "NO " "NO " "NO " "NO " "NO " "" "" "" "" "" "" "NO " 0.000 "NO " 0.000 0.000 0.000 "NO " "" "NO " "" "" "" "Successful Power Flow Solution" ""      0
   <SUBDATA PWCaseHeader>
     //Case Description
   </SUBDATA>
}

DataGrid (Name,FilterPre,RowHeight,FontNonDefault,FontName,FontStyles,FontSize,FontColor,
   SortVariable,SortOrder,Filter,Zoom,FrozenCols,RemoveTrailingZeros)
{
"Substation" "YES"     13 "NO " "Segoe UI" ""      8      0 "" "High To Low" "" 100.000 -1 "NO "
   <SUBDATA ColumnInfo>
     "Number"                74  8 2
     "Name"                 152  8 2
     "BusNumMin"             80  8 3
     "BusNumMax"             80  8 3
     "IDExtra"               75  8 2
     "Latitude"              80  8 3
     "Longitude"             80  8 3
     "AreaName"              75  8 2
     "ZoneName"              75  8 2
     "CountBus"              75  8 2
     "CountGen"              80  8 3
     "FuelType"              80  8 3
     "UnitType"              80  8 3
     "NomkVMax"             100  6 1
     "GenMWMax"              80  8 3
     "GenMW"                 75  8 2
     "GenMWMin"              80  8 3
     "GenMvar"               75  8 2
     "LoadMW"                75  8 2
     "LoadMvar"              75  8 2
     "ShuntMW"               75  8 2
     "ShuntMvar"             75  8 2
   </SUBDATA>
   <SUBDATA ColumnContourInfo>
   </SUBDATA>
"Bus" "YES"     13 "NO " "Segoe UI" ""      8      0 "NomkV" "Low To High" "" 100.000 -1 "NO "
   <SUBDATA ColumnInfo>
     "Number"                75  8 2
     "Name"                  75  8 2
     "AreaName"              75  8 2
     "NomkV"                 83  8 2
     "Vpu"                   75  8 5
     "kV"                    75  8 3
     "Vangle"                75  8 2
     "LoadMW"                75  8 2
     "LoadMvar"              75  8 2
     "GenMW"                 75  8 2
     "GenMvar"               75  8 2
     "ShuntMvar"             75  8 2
     "ActG"                  75  8 2
     "ActB"                  75  8 2
     "AreaNumber"            75  8 2
     "ZoneNumber"            75  8 2
     "LimitHighUsed"         75  8 2
     "LimitLowUsed"          75  8 2
   </SUBDATA>
   <SUBDATA ColumnContourInfo>
   </SUBDATA>
"Gen" "YES"     13 "NO " "Segoe UI" ""      8      0 "" "Low To High" "" 100.000 -1 "NO "
   <SUBDATA ColumnInfo>
     "BusNum"                75  8 2
     "BusName"               75  8 2
     "SubNumber"             80  8 3
     "FuelType"              80  8 3
     "FuelTypeCode"          80  8 3
     "UnitType"              80  8 3
     "UnitTypeCode"          80  8 3
     "ID"                    50  8 4
     "Status"                60  8 2
     "MW"                    75  8 2
     "MWSetPoint"            75  8 2
     "Mvar"                  75  8 2
     "MvarSetPoint"          75  8 2
     "MWMin"                 75  8 2
     "MWMax"                 75  8 2
     "AGC"                   40  8 2
     "AVR"                   40  8 2
     "RegBusNum"             60  8 2
     "VoltSet"               60  8 5
     "MvarMin"               75  8 2
     "MvarMax"               75  8 2
     "EnforceMWLimit"        40  8 2
     "PartFact"              75  8 2
     "CubicB"                80  8 3
     "CubicC"                80  8 3
     "CubicD"                80  8 3
     "FuelCostExtra"         80  8 3
     "FixedCostInd"          80  8 3
     "FixedCostDep"          80  8 3
     "FuelCost"              80  8 3
     "CostModel"             75  8 2
     "TSExciter"             80  8 3
     "TSGovernor"            80  8 3
     "TSMachine"             80  8 3
     "TSStabilizer"          80  8 3
   </SUBDATA>
   <SUBDATA ColumnContourInfo>
   </SUBDATA>
"BranchRun" "YES"     13 "NO " "Segoe UI" ""      8      0 "" "High To Low" "" 100.000 -1 "NO "
   <SUBDATA ColumnInfo>
     "BusNumFrom"            80  9 1
     "BusNameFrom"           80  9 1
     "BusNumTo"              80  9 1
     "BusNameTo"             80  9 1
     "Circuit"               47  9 1
     "Status"                62  9 1
     "BranchDeviceType"      62  9 1
     "IsXF"                  47  9 1
     "LineLengthXBKM"        80  8 3
     "R"                     75  9 5
     "X"                     75  9 5
     "B"                     75  9 5
     "LimitMVAA"             75  9 1
     "LimitMVAB"             75  9 1
     "LimitMVAC"             75  9 1
     "LineLength"            80  8 3
   </SUBDATA>
   <SUBDATA ColumnContourInfo>
   </SUBDATA>
"BranchEdit" "YES"     13 "NO " "Segoe UI" ""      8      0 "" "High To Low" "" 100.000 -1 "NO "
   <SUBDATA ColumnInfo>
     "BusNumFrom"            80  9 1
     "BusNameFrom"           80  9 1
     "BusNumTo"              80  9 1
     "BusNameTo"             80  9 1
     "Circuit"               47  9 1
     "Status"                62  9 1
     "BranchDeviceType"      62  9 1
     "IsXF"                  47  9 1
     "MWFrom"                75  9 1
     "LineLengthXBKM"       150  9 1
     "MvarFrom"              75  9 1
     "MVAFrom"               75  9 1
     "LimitMVANormal"        75  9 1
     "PercentMVA"            75  9 1
     "LossMW"                75  9 2
     "LossMvar"              75  9 2
   </SUBDATA>
   <SUBDATA ColumnContourInfo>
   </SUBDATA>
"BusGroupGenObjects" "NO "     13 "NO " "Segoe UI" ""      8      0 "" "High To Low" "" 100.000 -1 "NO "
   <SUBDATA ColumnInfo>
     "BusNum"                80  8 2
     "BusName"               80  8 2
     "ID"                    50  8 4
     "Status"                60  8 2
     "FuelType"              80  8 2
     "UnitType"              80  8 2
     "MW"                    80  8 2
     "Mvar"                  80  8 2
     "MWMin"                 80  8 2
     "MWMax"                 80  8 2
     "AGC"                   40  8 2
     "AVR"                   40  8 2
     "RegBusNum"             60  8 2
     "VoltSet"               60  8 5
     "MvarMin"               80  8 2
     "MvarMax"               80  8 2
     "EnforceMWLimit"        40  8 2
     "PartFact"              80  8 2
     "CostModel"             80  8 2
   </SUBDATA>
   <SUBDATA ColumnContourInfo>
   </SUBDATA>
}

//--------------------------------------------------------------------------------
// DEFAULT DRAWING VALUES SETTINGS
//--------------------------------------------------------------------------------

DefDrawOneline (FontName,FontStyles,FontColor,SOFontSize,DFDoFontSize,SOSBackgroundColorToUse)
{
"Tahoma" "" 0 14 "YES" 16777215
}

DefDrawArea (SOData,SOColor,SOUseFillColor,SOFillColor,SOHeight,SOWidth,SOThickness,
   SOOrientation,LimitHighlightingUsed,LimitHighlightColor,
   LimitHighlightMagnification,SOField,SOField:1,SOField:2,SOField:3,SOField:4,
   SOField:5,SOField:6,SOField:7)
{
"Name" 0 "YES" 16763080 5.000000 10.000000 1 "Rectangle" "NO " 255 0 " - - - " " - - - " " - - - " " - - - " " - - - " " - - - " " - - - " " - - - "
}

DefDrawZone (SOData,SOColor,SOUseFillColor,SOFillColor,SOHeight,SOWidth,SOThickness,
   SOOrientation,LimitHighlightingUsed,LimitHighlightColor,
   LimitHighlightMagnification,SOField,SOField:1,SOField:2,SOField:3,SOField:4,
   SOField:5,SOField:6,SOField:7)
{
"Name" 0 "YES" 16763080 5.000000 10.000000 1 "Rectangle" "NO " 255 0 " - - - " " - - - " " - - - " " - - - " " - - - " " - - - " " - - - " " - - - "
}

DefDrawSuperArea (SOData,SOColor,SOUseFillColor,SOFillColor,SOHeight,SOWidth,SOThickness,
   SOOrientation,LimitHighlightingUsed,LimitHighlightColor,
   LimitHighlightMagnification,SOField,SOField:1,SOField:2,SOField:3,SOField:4,
   SOField:5,SOField:6,SOField:7)
{
"Name" 0 "YES" 16763080 5.000000 10.000000 1 "Rectangle" "NO " 255 0 " - - - " " - - - " " - - - " " - - - " " - - - " " - - - " " - - - " " - - - "
}

DefDrawBackground (SOColor,SOUseFillColor,SOFillColor,SOFontSize,SOThickness,LimitHighlightingUsed,
   LimitHighlightColor,LimitHighlightMagnification)
{
0 "NO " -1 14 1 "NO " 255 0
}

DefDrawBus (BusNomVolt,SOColor,SOUseFillColor,SOFillColor,SOSize,SOWidth,SOFontSize,
   SOThickness,SOStyle,SOOrientation,VoltGaugeColor,VoltGaugeMaxPU,
   VoltGaugeMinPU,VoltGaugeTargetPU,LimitHighlightingUsed,LimitHighlightColor,
   LimitHighlightMagnification,SOField,SOField:1,SOField:2,SOField:3,SOField:4,
   SOField:5,SOField:6,SOField:7)
{
600.00 0 "YES" 0 15.000000 0.400000 50 1 "Rectangle" "Right" 16711680 1.100000 0.900000 1.000000 "NO " 255 0 " - - - " " - - - " " - - - " " - - - " " - - - " "Name@0@0@0@0@1@" " - - - " " - - - "
400.00 0 "YES" 0 12.000000 0.300000 40 1 "Rectangle" "Right" 16711680 1.100000 0.900000 1.000000 "NO " 255 0 " - - - " " - - - " " - - - " " - - - " " - - - " "Name@0@0@0@0@1@" " - - - " " - - - "
300.00 0 "YES" 0 10.000000 0.300000 30 1 "Rectangle" "Right" 16711680 1.100000 0.900000 1.000000 "NO " 255 0 " - - - " " - - - " " - - - " " - - - " " - - - " "Name@0@0@0@0@1@" " - - - " " - - - "
200.00 0 "YES" 0 7.000000 0.200000 20 1 "Rectangle" "Right" 16711680 1.100000 0.900000 1.000000 "NO " 255 0 " - - - " " - - - " " - - - " " - - - " " - - - " "Name@0@0@0@0@1@" " - - - " " - - - "
100.00 0 "YES" 0 5.000000 0.200000 15 1 "Rectangle" "Right" 16711680 1.100000 0.900000 1.000000 "NO " 255 0 " - - - " " - - - " " - - - " " - - - " " - - - " "Name@0@0@0@0@1@" " - - - " " - - - "
  0.00 0 "YES" 0 3.000000 0.200000 10 1 "Rectangle" "Right" 16711680 1.100000 0.900000 1.000000 "NO " 255 0 " - - - " " - - - " " - - - " " - - - " " - - - " "Name@0@0@0@0@1@" " - - - " " - - - "
}

DefDrawGen (BusNomVolt,SOColor,SOUseFillColor,SOFillColor,UseRotorColor,RotorShapeColor,
   SOStyle,SOSize,SOWidth,SOFontSize,SOThickness,SOOrientation,
   LimitHighlightingUsed,LimitHighlightColor,LimitHighlightMagnification,SOField,
   SOField:1,SOField:2,SOField:3,SOField:4,SOField:5)
{
  0.00 0 "NO " -1 "NO " -1 "Dog Bone" 10.000000 7.500000 14 1 "Down" "NO " 255 0 " - - - " " - - - " "Gen MW@4@0@0@0@1@" "Gen MVAR@4@0@0@0@1@" " - - - " " - - - "
}

DefDrawInterface (SOColor,SOUseFillColor,SOFillColor,SOFontSize,SOPieSize,SOThickness,
   LimitHighlightingUsed,LimitHighlightColor,LimitHighlightMagnification,SOField,
   SOField:1,SOField:2,SOField:3,SOField:4,SOField:5)
{
0 "NO " -1 14 50.000000 1 "NO " 255 0 " - - - " " - - - " " - - - " " - - - " " - - - " " - - - "
}

DefDrawLineTransformer (BusNomVolt,SOColor,SOFontSize,SOThickness,SOCBSize,SOPieSize,SOXFMRSize,
   LineGaugeColor,SOStubSize,SOStubSpace,LimitHighlightingUsed,
   LimitHighlightColor,LimitHighlightMagnification,SOField,SOField:1,SOField:2,
   SOField:3,SOField:4,SOField:5,SOField:6,SOField:7,SOField:8,SOField:9)
{
600.00 65280 50 2 3.000000 70.000000 4.000000 16711680 4.000000 4.500000 "NO " 255 0 " - - - " " - - - " " - - - " " - - - " " - - - " " - - - " " - - - " " - - - " " - - - " " - - - "
400.00 33023 40 2 2.500000 50.000000 4.000000 16711680 3.300000 3.700000 "NO " 255 0 " - - - " " - - - " " - - - " " - - - " " - - - " " - - - " " - - - " " - - - " " - - - " " - - - "
300.00 255 30 1 2.000000 30.000000 3.000000 16711680 2.500000 3.000000 "NO " 255 0 " - - - " " - - - " " - - - " " - - - " " - - - " " - - - " " - - - " " - - - " " - - - " " - - - "
200.00 16744448 20 1 1.400000 15.000000 2.000000 16711680 1.700000 2.000000 "NO " 255 0 " - - - " " - - - " " - - - " " - - - " " - - - " " - - - " " - - - " " - - - " " - - - " " - - - "
100.00 0 15 1 1.000000 8.000000 1.500000 16711680 1.300000 1.500000 "NO " 255 0 " - - - " " - - - " " - - - " " - - - " " - - - " " - - - " " - - - " " - - - " " - - - " " - - - "
  0.00 32768 10 1 0.600000 3.000000 1.000000 16711680 0.800000 1.000000 "NO " 255 0 " - - - " " - - - " " - - - " " - - - " " - - - " " - - - " " - - - " " - - - " " - - - " " - - - "
}

DefDrawLoad (BusNomVolt,SOColor,SOSize,SOWidth,SOFontSize,SOThickness,SOOrientation,
   LimitHighlightingUsed,LimitHighlightColor,LimitHighlightMagnification,SOField,
   SOField:1,SOField:2,SOField:3,SOField:4,SOField:5)
{
  0.00 0 10.000000 3.750000 14 1 "Up" "NO " 255 0 " - - - " " - - - " "Load MW@4@0@0@0@1@" "Load MVAR@4@0@0@0@1@" " - - - " " - - - "
}

DefDrawShunt (BusNomVolt,SOColor,SOSize,SOWidth,SOFontSize,SOThickness,SOOrientation,
   LimitHighlightingUsed,LimitHighlightColor,LimitHighlightMagnification,SOField,
   SOField:1,SOField:2,SOField:3,SOField:4,SOField:5)
{
  0.00 0 10.000000 3.000000 14 1 "Up" "NO " 255 0 " - - - " " - - - " " - - - " "Shunt MVAR@5@1@0@0@1@" " - - - " " - - - "
}

DefDrawDFACTS (BusNomVolt,SOColor,SOUseFillColor,SOFillColor,SOFontSize,SOThickness,SOHeight,
   SOWidth,LimitHighlightingUsed,LimitHighlightColor,LimitHighlightMagnification,
   SOField,SOField:1,SOField:2,SOField:3,SOField:4,SOField:5,SOField:6,SOField:7)
{
  0.00 0 "YES" 16711680 14 1 2.000000 6.000000 "NO " 255 0 " - - - " " - - - " " - - - " " - - - " " - - - " " - - - " " - - - " " - - - "
}

DefDrawSubstation (BusNomVolt,SOColor,SOUseFillColor,SOFillColor,SOHeight,SOWidth,SOStyle,
   SOFontSize,SOThickness,LimitHighlightingUsed,LimitHighlightColor,
   LimitHighlightMagnification,SOField,SOField:1,SOField:2,SOField:3,SOField:4,
   SOField:5,SOField:6,SOField:7)
{
600.00 0 "YES" 65280 15.000000 30.000000 "UseSubLayout" 14 1 "NO " 255 0 "Name@0@0@0@0@1@" " - - - " " - - - " " - - - " " - - - " " - - - " " - - - " " - - - "
400.00 0 "YES" 33023 12.000000 24.000000 "UseSubLayout" 14 1 "NO " 255 0 "Name@0@0@0@0@1@" " - - - " " - - - " " - - - " " - - - " " - - - " " - - - " " - - - "
300.00 0 "YES" 255 10.000000 20.000000 "UseSubLayout" 14 1 "NO " 255 0 "Name@0@0@0@0@1@" " - - - " " - - - " " - - - " " - - - " " - - - " " - - - " " - - - "
200.00 0 "YES" 16744448 7.000000 14.000000 "UseSubLayout" 14 1 "NO " 255 0 "Name@0@0@0@0@1@" " - - - " " - - - " " - - - " " - - - " " - - - " " - - - " " - - - "
100.00 0 "YES" 8421504 5.000000 10.000000 "UseSubLayout" 14 1 "NO " 255 0 "Name@0@0@0@0@1@" " - - - " " - - - " " - - - " " - - - " " - - - " " - - - " " - - - "
  0.00 0 "YES" 32768 3.000000 6.000000 "UseSubLayout" 14 1 "NO " 255 0 "Name@0@0@0@0@1@" " - - - " " - - - " " - - - " " - - - " " - - - " " - - - " " - - - "
}

DefDrawMSLine (BusNomVolt,SOColor,SOFontSize,SOThickness,SOPieSize,SOStubSize,SOStubSpace,
   SOXFMRSize,SOPercent,LimitHighlightingUsed,LimitHighlightColor,
   LimitHighlightMagnification,SOField,SOField:1,SOField:2,SOField:3,SOField:4,
   SOField:5,SOField:6,SOField:7,SOField:8,SOField:9)
{
600.00 65280 50 2 70.000000 4.000000 4.500000 4.000000 15.000000 "NO " 255 0 " - - - " " - - - " " - - - " " - - - " " - - - " " - - - " " - - - " " - - - " " - - - " " - - - "
400.00 33023 40 2 50.000000 3.300000 3.700000 4.000000 15.000000 "NO " 255 0 " - - - " " - - - " " - - - " " - - - " " - - - " " - - - " " - - - " " - - - " " - - - " " - - - "
300.00 255 30 1 30.000000 2.500000 3.000000 3.000000 11.000000 "NO " 255 0 " - - - " " - - - " " - - - " " - - - " " - - - " " - - - " " - - - " " - - - " " - - - " " - - - "
200.00 16744448 20 1 15.000000 1.700000 2.000000 2.000000 8.000000 "NO " 255 0 " - - - " " - - - " " - - - " " - - - " " - - - " " - - - " " - - - " " - - - " " - - - " " - - - "
100.00 0 15 1 8.000000 1.300000 1.500000 1.500000 6.000000 "NO " 255 0 " - - - " " - - - " " - - - " " - - - " " - - - " " - - - " " - - - " " - - - " " - - - " " - - - "
  0.00 32768 10 1 3.000000 0.800000 1.000000 1.000000 4.000000 "NO " 255 0 " - - - " " - - - " " - - - " " - - - " " - - - " " - - - " " - - - " " - - - " " - - - " " - - - "
}


CustomCaseInfo (Name,RowHeight,FontNonDefault,FontName,FontStyles,FontSize,FontColor)
{
"Default Custom Case Information"     13 "NO " "Segoe UI" ""      8      0
   <SUBDATA ColumnInfo>
   </SUBDATA>
}

Owner (Number,Name,DataMaintainerAssign)
{
     1 "1" ""
}

Bus (Number,Name,NomkV,Vpu,Vangle,NomG,NomB,AreaNumber,ZoneNumber,BANumber,SubNumber,
   Slack,Status,CTGLoadThrowNum,CTGLoadThrowNameNomkV,LongName,kV,VangleRad,
   VpuReal,VpuImag,MargCostMW,MargCostMWEnergy,MargCostMWCong,MargCostMWLoss,
   MargCostMvar,MargCostMvarCong,MargCostMvarLoss,MargCostVolt,GenRemRegVoltSet,
   OwnerNumber,Equiv,Scale,TimeStepSelected,LimitSet,Monitor,UseSpecificLimits,
   LimitLowUsed,LimitHighUsed,OPFUnenforceableVolt,OPFVoltBinding,LossSensMW,
   LossSensMvar,DCLossMultiplier,Latitude,Longitude,LatitudeString,
   LongitudeString,Datum,PVMonVpu,PVMonKV,PVMonVangle,PVMonSensdVdQself,
   PVMonLoadMW,PVMonLoadMvar,PVMonShuntMvar,QVMinVolt,QVMaxVolt,QVStepSize,
   DataMaintainerAssign)
{
     1 "1"            220.00 1.080769  -5.842457   0.0000   0.0000      1      1      1 1 "NO " "Connected" "" "" "1 220" 237.7692  -0.101970   1.0752  -0.1100 "Not Valid" "Not Valid" "Not Valid" "Not Valid" "Not Valid" "Not Valid" "Not Valid" "Not Valid" ""      1 "Study" "NO " "NO " "Default" "YES" "NO "   0.9000   1.1000 "   " "No"   0.0000   0.0000   1.0000 "" "" "" "" "" "NO " "NO " "NO " "NO " "NO " "NO " "NO "  0.100  1.100  0.010 ""
     2 "2"            220.00 1.082809  -2.404548   0.0000   0.0000      1      1      1 1 "NO " "Connected" "" "" "2 220" 238.2180  -0.041967   1.0819  -0.0454 "Not Valid" "Not Valid" "Not Valid" "Not Valid" "Not Valid" "Not Valid" "Not Valid" "Not Valid" ""      1 "Study" "NO " "NO " "Default" "YES" "NO "   0.9000   1.1000 "   " "No"   0.0000   0.0000   1.0000 "" "" "" "" "" "NO " "NO " "NO " "NO " "NO " "NO " "NO "  0.100  1.100  0.010 ""
     3 "3"            220.00 1.063366 -23.485660   0.0000   0.0000      1      1      1 2 "NO " "Connected" "" "" "3 220" 233.9406  -0.409902   0.9753  -0.4238 "Not Valid" "Not Valid" "Not Valid" "Not Valid" "Not Valid" "Not Valid" "Not Valid" "Not Valid" ""      1 "Study" "NO " "NO " "Default" "YES" "NO "   0.9000   1.1000 "   " "No"   0.0000   0.0000   1.0000 "" "" "" "" "" "NO " "NO " "NO " "NO " "NO " "NO " "NO "  0.100  1.100  0.010 ""
     4 "4"            220.00 1.070768  -8.914048   0.0000   0.0000      1      1      1 3 "NO " "Connected" "" "" "4 220" 235.5690  -0.155579   1.0578  -0.1659 "Not Valid" "Not Valid" "Not Valid" "Not Valid" "Not Valid" "Not Valid" "Not Valid" "Not Valid" ""      1 "Study" "NO " "NO " "Default" "YES" "NO "   0.9000   1.1000 "   " "No"   0.0000   0.0000   1.0000 "" "" "" "" "" "NO " "NO " "NO " "NO " "NO " "NO " "NO "  0.100  1.100  0.010 ""
     5 "5"            220.00 1.070781  -8.920646   0.0000   0.0000      1      1      1 3 "NO " "Connected" "" "" "5 220" 235.5718  -0.155695   1.0578  -0.1660 "Not Valid" "Not Valid" "Not Valid" "Not Valid" "Not Valid" "Not Valid" "Not Valid" "Not Valid" ""      1 "Study" "NO " "NO " "Default" "YES" "NO "   0.9000   1.1000 "   " "No"   0.0000   0.0000   1.0000 "" "" "" "" "" "NO " "NO " "NO " "NO " "NO " "NO " "NO "  0.100  1.100  0.010 ""
     6 "6"            220.00 1.057674 -17.448493   0.0000   0.0000      1      1      1 4 "NO " "Connected" "" "" "6 220" 232.6883  -0.304534   1.0090  -0.3171 "Not Valid" "Not Valid" "Not Valid" "Not Valid" "Not Valid" "Not Valid" "Not Valid" "Not Valid" ""      1 "Study" "NO " "NO " "Default" "YES" "NO "   0.9000   1.1000 "   " "No"   0.0000   0.0000   1.0000 "" "" "" "" "" "NO " "NO " "NO " "NO " "NO " "NO " "NO "  0.100  1.100  0.010 ""
     7 "7"            220.00 1.057751 -17.445232   0.0000   0.0000      1      1      1 4 "NO " "Connected" "" "" "7 220" 232.7053  -0.304477   1.0091  -0.3171 "Not Valid" "Not Valid" "Not Valid" "Not Valid" "Not Valid" "Not Valid" "Not Valid" "Not Valid" ""      1 "Study" "NO " "NO " "Default" "YES" "NO "   0.9000   1.1000 "   " "No"   0.0000   0.0000   1.0000 "" "" "" "" "" "NO " "NO " "NO " "NO " "NO " "NO " "NO "  0.100  1.100  0.010 ""
     8 "8"            400.00 1.018582 -15.181525   0.0000   0.0000      1      1      1 4 "NO " "Connected" "" "" "8 400" 407.4327  -0.264968   0.9830  -0.2667 "Not Valid" "Not Valid" "Not Valid" "Not Valid" "Not Valid" "Not Valid" "Not Valid" "Not Valid" ""      1 "Study" "NO " "NO " "Default" "YES" "NO "   0.9000   1.1000 "   " "No"   0.0000   0.0000   1.0000 "" "" "" "" "" "NO " "NO " "NO " "NO " "NO " "NO " "NO "  0.100  1.100  0.010 ""
     9 "9"            400.00 1.018617 -15.184226   0.0000   0.0000      1      1      1 4 "NO " "Connected" "" "" "9 400" 407.4467  -0.265015   0.9831  -0.2668 "Not Valid" "Not Valid" "Not Valid" "Not Valid" "Not Valid" "Not Valid" "Not Valid" "Not Valid" ""      1 "Study" "NO " "NO " "Default" "YES" "NO "   0.9000   1.1000 "   " "No"   0.0000   0.0000   1.0000 "" "" "" "" "" "NO " "NO " "NO " "NO " "NO " "NO " "NO "  0.100  1.100  0.010 ""
    10 "10"           220.00 1.050819 -17.414427   0.0000   0.0000      1      1      1 5 "NO " "Connected" "" "" "10 220" 231.1801  -0.303939   1.0027  -0.3145 "Not Valid" "Not Valid" "Not Valid" "Not Valid" "Not Valid" "Not Valid" "Not Valid" "Not Valid" ""      1 "Study" "NO " "NO " "Default" "YES" "NO "   0.9000   1.1000 "   " "No"   0.0000   0.0000   1.0000 "" "" "" "" "" "NO " "NO " "NO " "NO " "NO " "NO " "NO "  0.100  1.100  0.010 ""
    11 "11"           220.00 1.050748 -17.428382   0.0000   0.0000      1      1      1 5 "NO " "Connected" "" "" "11 220" 231.1646  -0.304183   1.0025  -0.3147 "Not Valid" "Not Valid" "Not Valid" "Not Valid" "Not Valid" "Not Valid" "Not Valid" "Not Valid" ""      1 "Study" "NO " "NO " "Default" "YES" "NO "   0.9000   1.1000 "   " "No"   0.0000   0.0000   1.0000 "" "" "" "" "" "NO " "NO " "NO " "NO " "NO " "NO " "NO "  0.100  1.100  0.010 ""
    12 "12"           220.00 1.050787 -17.420836   0.0000   0.0000      1      1      1 5 "NO " "Connected" "" "" "12 220" 231.1732  -0.304051   1.0026  -0.3146 "Not Valid" "Not Valid" "Not Valid" "Not Valid" "Not Valid" "Not Valid" "Not Valid" "Not Valid" ""      1 "Study" "NO " "NO " "Default" "YES" "NO "   0.9000   1.1000 "   " "No"   0.0000   0.0000   1.0000 "" "" "" "" "" "NO " "NO " "NO " "NO " "NO " "NO " "NO "  0.100  1.100  0.010 ""
    13 "13"           400.00 1.009545 -13.383999   0.0000   0.0000      1      1      1 6 "NO " "Connected" "" "" "13 400" 403.8180  -0.233595   0.9821  -0.2337 "Not Valid" "Not Valid" "Not Valid" "Not Valid" "Not Valid" "Not Valid" "Not Valid" "Not Valid" ""      1 "Study" "NO " "NO " "Default" "YES" "NO "   0.9000   1.1000 "   " "No"   0.0000   0.0000   1.0000 "" "" "" "" "" "NO " "NO " "NO " "NO " "NO " "NO " "NO "  0.100  1.100  0.010 ""
    14 "14"           400.00 1.009646 -13.378400   0.0000   0.0000      1      1      1 6 "NO " "Connected" "" "" "14 400" 403.8583  -0.233497   0.9822  -0.2336 "Not Valid" "Not Valid" "Not Valid" "Not Valid" "Not Valid" "Not Valid" "Not Valid" "Not Valid" ""      1 "Study" "NO " "NO " "Default" "YES" "NO "   0.9000   1.1000 "   " "No"   0.0000   0.0000   1.0000 "" "" "" "" "" "NO " "NO " "NO " "NO " "NO " "NO " "NO "  0.100  1.100  0.010 ""
    15 "15"           400.00 1.028133 -16.549107   0.0000   0.0000      1      1      1 7 "NO " "Connected" "" "" "15 400" 411.2531  -0.288836   0.9855  -0.2929 "Not Valid" "Not Valid" "Not Valid" "Not Valid" "Not Valid" "Not Valid" "Not Valid" "Not Valid" ""      1 "Study" "NO " "NO " "Default" "YES" "NO "   0.9000   1.1000 "   " "No"   0.0000   0.0000   1.0000 "" "" "" "" "" "NO " "NO " "NO " "NO " "NO " "NO " "NO "  0.100  1.100  0.010 ""
    16 "16"           400.00 1.028133 -16.549107   0.0000   0.0000      1      1      1 7 "NO " "Connected" "" "" "16 400" 411.2531  -0.288836   0.9855  -0.2929 "Not Valid" "Not Valid" "Not Valid" "Not Valid" "Not Valid" "Not Valid" "Not Valid" "Not Valid" ""      1 "Study" "NO " "NO " "Default" "YES" "NO "   0.9000   1.1000 "   " "No"   0.0000   0.0000   1.0000 "" "" "" "" "" "NO " "NO " "NO " "NO " "NO " "NO " "NO "  0.100  1.100  0.010 ""
    17 "Ostroleka"    220.00 1.090880 -19.427206   0.0000   0.0000      1      1      1 8 "NO " "Connected" "" "" "17 220" 239.9936  -0.339069   1.0288  -0.3628 "Not Valid" "Not Valid" "Not Valid" "Not Valid" "Not Valid" "Not Valid" "Not Valid" "Not Valid" ""      1 "Study" "NO " "NO " "Default" "YES" "NO "   0.9000   1.1000 "   " "No"   0.0000   0.0000   1.0000 "" "" "" "" "" "NO " "NO " "NO " "NO " "NO " "NO " "NO "  0.100  1.100  0.010 ""
    18 "Ostroleka"    220.00 1.090910 -19.428658   0.0000   0.0000      1      1      1 8 "NO " "Connected" "" "" "18 220" 240.0002  -0.339094   1.0288  -0.3629 "Not Valid" "Not Valid" "Not Valid" "Not Valid" "Not Valid" "Not Valid" "Not Valid" "Not Valid" ""      1 "Study" "NO " "NO " "Default" "YES" "NO "   0.9000   1.1000 "   " "No"   0.0000   0.0000   1.0000 "" "" "" "" "" "NO " "NO " "NO " "NO " "NO " "NO " "NO "  0.100  1.100  0.010 ""
    19 "19"           220.00 1.074191  -8.094314   0.0000   0.0000      1      1      1 9 "NO " "Connected" "" "" "19 220" 236.3221  -0.141272   1.0635  -0.1512 "Not Valid" "Not Valid" "Not Valid" "Not Valid" "Not Valid" "Not Valid" "Not Valid" "Not Valid" ""      1 "Study" "NO " "NO " "Default" "YES" "NO "   0.9000   1.1000 "   " "No"   0.0000   0.0000   1.0000 "" "" "" "" "" "NO " "NO " "NO " "NO " "NO " "NO " "NO "  0.100  1.100  0.010 ""
    20 "20"           220.00 1.074188  -8.090384   0.0000   0.0000      1      1      1 9 "NO " "Connected" "" "" "20 220" 236.3213  -0.141204   1.0635  -0.1512 "Not Valid" "Not Valid" "Not Valid" "Not Valid" "Not Valid" "Not Valid" "Not Valid" "Not Valid" ""      1 "Study" "NO " "NO " "Default" "YES" "NO "   0.9000   1.1000 "   " "No"   0.0000   0.0000   1.0000 "" "" "" "" "" "NO " "NO " "NO " "NO " "NO " "NO " "NO "  0.100  1.100  0.010 ""
    21 "21"           220.00 1.069617 -19.167257   0.0000   0.0000      1      1      1 10 "NO " "Connected" "" "" "21 220" 235.3158  -0.334532   1.0103  -0.3512 "Not Valid" "Not Valid" "Not Valid" "Not Valid" "Not Valid" "Not Valid" "Not Valid" "Not Valid" ""      1 "Study" "NO " "NO " "Default" "YES" "NO "   0.9000   1.1000 "   " "No"   0.0000   0.0000   1.0000 "" "" "" "" "" "NO " "NO " "NO " "NO " "NO " "NO " "NO "  0.100  1.100  0.010 ""
    22 "22"           220.00 1.069617 -19.167257   0.0000   0.0000      1      1      1 10 "NO " "Connected" "" "" "22 220" 235.3158  -0.334532   1.0103  -0.3512 "Not Valid" "Not Valid" "Not Valid" "Not Valid" "Not Valid" "Not Valid" "Not Valid" "Not Valid" ""      1 "Study" "NO " "NO " "Default" "YES" "NO "   0.9000   1.1000 "   " "No"   0.0000   0.0000   1.0000 "" "" "" "" "" "NO " "NO " "NO " "NO " "NO " "NO " "NO "  0.100  1.100  0.010 ""
    23 "23"           220.00 1.051391 -17.347989   0.0000   0.0000      1      1      1 11 "NO " "Connected" "" "" "23 220" 231.3061  -0.302780   1.0036  -0.3135 "Not Valid" "Not Valid" "Not Valid" "Not Valid" "Not Valid" "Not Valid" "Not Valid" "Not Valid" ""      1 "Study" "NO " "NO " "Default" "YES" "NO "   0.9000   1.1000 "   " "No"   0.0000   0.0000   1.0000 "" "" "" "" "" "NO " "NO " "NO " "NO " "NO " "NO " "NO "  0.100  1.100  0.010 ""
    24 "24"           220.00 1.076861  -5.979081   0.0000   0.0000      1      1      1 12 "NO " "Connected" "" "" "24 220" 236.9095  -0.104355   1.0710  -0.1122 "Not Valid" "Not Valid" "Not Valid" "Not Valid" "Not Valid" "Not Valid" "Not Valid" "Not Valid" ""      1 "Study" "NO " "NO " "Default" "YES" "NO "   0.9000   1.1000 "   " "No"   0.0000   0.0000   1.0000 "" "" "" "" "" "NO " "NO " "NO " "NO " "NO " "NO " "NO "  0.100  1.100  0.010 ""
    25 "25"           400.00 1.010652 -18.092129   0.0000   0.0000      1      1      1 13 "NO " "Connected" "" "" "25 400" 404.2606  -0.315767   0.9607  -0.3139 "Not Valid" "Not Valid" "Not Valid" "Not Valid" "Not Valid" "Not Valid" "Not Valid" "Not Valid" ""      1 "Study" "NO " "NO " "Default" "YES" "NO "   0.9000   1.1000 "   " "No"   0.0000   0.0000   1.0000 "" "" "" "" "" "NO " "NO " "NO " "NO " "NO " "NO " "NO "  0.100  1.100  0.010 ""
    26 "Belchatow"    220.00 1.090910  -5.652584   0.0000   0.0000      1      1      1 14 "NO " "Connected" "" "" "26 220" 240.0002  -0.098656   1.0856  -0.1075 "Not Valid" "Not Valid" "Not Valid" "Not Valid" "Not Valid" "Not Valid" "Not Valid" "Not Valid" ""      1 "Study" "NO " "NO " "Default" "YES" "NO "   0.9000   1.1000 "   " "No"   0.0000   0.0000   1.0000 "" "" "" "" "" "NO " "NO " "NO " "NO " "NO " "NO " "NO "  0.100  1.100  0.010 ""
    27 "Belchatow"    220.00 1.090910  -2.180448   0.0000   0.0000      1      1      1 14 "NO " "Connected" "" "" "27 220" 240.0002  -0.038056   1.0901  -0.0415 "Not Valid" "Not Valid" "Not Valid" "Not Valid" "Not Valid" "Not Valid" "Not Valid" "Not Valid" ""      1 "Study" "NO " "NO " "Default" "YES" "NO "   0.9000   1.1000 "   " "No"   0.0000   0.0000   1.0000 "" "" "" "" "" "NO " "NO " "NO " "NO " "NO " "NO " "NO "  0.100  1.100  0.010 ""
    28 "Belchatow"    400.00 1.032500  -4.410000   0.0000   0.0000      1      1      1 14 "YES" "Connected" "" "" "28 400" 413.0000  -0.076969   1.0294  -0.0794 "Not Valid" "Not Valid" "Not Valid" "Not Valid" "Not Valid" "Not Valid" "Not Valid" "Not Valid" ""      1 "Study" "NO " "NO " "Default" "YES" "NO "   0.9000   1.1000 "   " "No"   0.0000   0.0000   1.0000 "" "" "" "" "" "NO " "NO " "NO " "NO " "NO " "NO " "NO "  0.100  1.100  0.010 ""
    29 "Belchatow"    400.00 1.032489  -4.400697   0.0000   0.0000      1      1      1 14 "NO " "Connected" "" "" "29 400" 412.9956  -0.076807   1.0294  -0.0792 "Not Valid" "Not Valid" "Not Valid" "Not Valid" "Not Valid" "Not Valid" "Not Valid" "Not Valid" ""      1 "Study" "NO " "NO " "Default" "YES" "NO "   0.9000   1.1000 "   " "No"   0.0000   0.0000   1.0000 "" "" "" "" "" "NO " "NO " "NO " "NO " "NO " "NO " "NO "  0.100  1.100  0.010 ""
    30 "30"           220.00 1.056769 -18.616588   0.0000   0.0000      1      1      1 15 "NO " "Connected" "" "" "30 220" 232.4891  -0.324921   1.0015  -0.3374 "Not Valid" "Not Valid" "Not Valid" "Not Valid" "Not Valid" "Not Valid" "Not Valid" "Not Valid" ""      1 "Study" "NO " "NO " "Default" "YES" "NO "   0.9000   1.1000 "   " "No"   0.0000   0.0000   1.0000 "" "" "" "" "" "NO " "NO " "NO " "NO " "NO " "NO " "NO "  0.100  1.100  0.010 ""
    31 "31"           400.00 1.033155  -5.456010   0.0000   0.0000      1      1      1 16 "NO " "Connected" "" "" "31 400" 413.2621  -0.095225   1.0285  -0.0982 "Not Valid" "Not Valid" "Not Valid" "Not Valid" "Not Valid" "Not Valid" "Not Valid" "Not Valid" ""      1 "Study" "NO " "NO " "Default" "YES" "NO "   0.9000   1.1000 "   " "No"   0.0000   0.0000   1.0000 "" "" "" "" "" "NO " "NO " "NO " "NO " "NO " "NO " "NO "  0.100  1.100  0.010 ""
    32 "32"           220.00 1.048645 -17.569259   0.0000   0.0000      1      1      1 17 "NO " "Connected" "" "" "32 220" 230.7020  -0.306641   0.9997  -0.3165 "Not Valid" "Not Valid" "Not Valid" "Not Valid" "Not Valid" "Not Valid" "Not Valid" "Not Valid" ""      1 "Study" "NO " "NO " "Default" "YES" "NO "   0.9000   1.1000 "   " "No"   0.0000   0.0000   1.0000 "" "" "" "" "" "NO " "NO " "NO " "NO " "NO " "NO " "NO "  0.100  1.100  0.010 ""
    33 "33"           220.00 1.076866  -5.978155   0.0000   0.0000      1      1      1 12 "NO " "Connected" "" "" "33 220" 236.9104  -0.104338   1.0710  -0.1122 "Not Valid" "Not Valid" "Not Valid" "Not Valid" "Not Valid" "Not Valid" "Not Valid" "Not Valid" ""      1 "Study" "NO " "NO " "Default" "YES" "NO "   0.9000   1.1000 "   " "No"   0.0000   0.0000   1.0000 "" "" "" "" "" "NO " "NO " "NO " "NO " "NO " "NO " "NO "  0.100  1.100  0.010 ""
    34 "34"           220.00 1.071597 -11.888018   0.0000   0.0000      1      1      1 18 "NO " "Connected" "" "" "34 220" 235.7513  -0.207485   1.0486  -0.2207 "Not Valid" "Not Valid" "Not Valid" "Not Valid" "Not Valid" "Not Valid" "Not Valid" "Not Valid" ""      1 "Study" "NO " "NO " "Default" "YES" "NO "   0.9000   1.1000 "   " "No"   0.0000   0.0000   1.0000 "" "" "" "" "" "NO " "NO " "NO " "NO " "NO " "NO " "NO "  0.100  1.100  0.010 ""
    35 "35"           220.00 1.090920 -15.145922   0.0000   0.0000      1      2      1 19 "NO " "Connected" "" "" "35 220" 240.0023  -0.264346   1.0530  -0.2850 "Not Valid" "Not Valid" "Not Valid" "Not Valid" "Not Valid" "Not Valid" "Not Valid" "Not Valid" ""      1 "Study" "NO " "NO " "Default" "YES" "NO "   0.9000   1.1000 "   " "No"   0.0000   0.0000   1.0000 "" "" "" "" "" "NO " "NO " "NO " "NO " "NO " "NO " "NO "  0.100  1.100  0.010 ""
    36 "36"           220.00 1.081556 -15.550118   0.0000   0.0000      1      2      1 20 "NO " "Connected" "" "" "36 220" 237.9423  -0.271401   1.0420  -0.2899 "Not Valid" "Not Valid" "Not Valid" "Not Valid" "Not Valid" "Not Valid" "Not Valid" "Not Valid" ""      1 "Study" "NO " "NO " "Default" "YES" "NO "   0.9000   1.1000 "   " "No"   0.0000   0.0000   1.0000 "" "" "" "" "" "NO " "NO " "NO " "NO " "NO " "NO " "NO "  0.100  1.100  0.010 ""
    37 "37"           220.00 1.089871 -14.569638   0.0000   0.0000      1      2      1 21 "NO " "Connected" "" "" "37 220" 239.7715  -0.254288   1.0548  -0.2742 "Not Valid" "Not Valid" "Not Valid" "Not Valid" "Not Valid" "Not Valid" "Not Valid" "Not Valid" ""      1 "Study" "NO " "NO " "Default" "YES" "NO "   0.9000   1.1000 "   " "No"   0.0000   0.0000   1.0000 "" "" "" "" "" "NO " "NO " "NO " "NO " "NO " "NO " "NO "  0.100  1.100  0.010 ""
    38 "38"           220.00 1.089849 -14.572500   0.0000   0.0000      1      2      1 21 "NO " "Connected" "" "" "38 220" 239.7669  -0.254338   1.0548  -0.2742 "Not Valid" "Not Valid" "Not Valid" "Not Valid" "Not Valid" "Not Valid" "Not Valid" "Not Valid" ""      1 "Study" "NO " "NO " "Default" "YES" "NO "   0.9000   1.1000 "   " "No"   0.0000   0.0000   1.0000 "" "" "" "" "" "NO " "NO " "NO " "NO " "NO " "NO " "NO "  0.100  1.100  0.010 ""
    39 "39"           220.00 1.085547 -16.204890   0.0000   0.0000      1      2      1 22 "NO " "Connected" "" "" "39 220" 238.8203  -0.282829   1.0424  -0.3029 "Not Valid" "Not Valid" "Not Valid" "Not Valid" "Not Valid" "Not Valid" "Not Valid" "Not Valid" ""      1 "Study" "NO " "NO " "Default" "YES" "NO "   0.9000   1.1000 "   " "No"   0.0000   0.0000   1.0000 "" "" "" "" "" "NO " "NO " "NO " "NO " "NO " "NO " "NO "  0.100  1.100  0.010 ""
    40 "40"           220.00 1.102912 -13.811252   0.0000   0.0000      1      2      1 23 "NO " "Connected" "" "" "40 220" 242.6406  -0.241052   1.0710  -0.2633 "Not Valid" "Not Valid" "Not Valid" "Not Valid" "Not Valid" "Not Valid" "Not Valid" "Not Valid" ""      1 "Study" "NO " "NO " "Default" "YES" "NO "   0.9000   1.1000 "   " "No"   0.0000   0.0000   1.0000 "" "" "" "" "" "NO " "NO " "NO " "NO " "NO " "NO " "NO "  0.100  1.100  0.010 ""
    41 "41"           220.00 1.102827 -13.814313   0.0000   0.0000      1      2      1 23 "NO " "Connected" "" "" "41 220" 242.6218  -0.241105   1.0709  -0.2633 "Not Valid" "Not Valid" "Not Valid" "Not Valid" "Not Valid" "Not Valid" "Not Valid" "Not Valid" ""      1 "Study" "NO " "NO " "Default" "YES" "NO "   0.9000   1.1000 "   " "No"   0.0000   0.0000   1.0000 "" "" "" "" "" "NO " "NO " "NO " "NO " "NO " "NO " "NO "  0.100  1.100  0.010 ""
    42 "42"           400.00 1.021564 -13.876135   0.0000   0.0000      1      2      1 23 "NO " "Connected" "" "" "42 400" 408.6256  -0.242184   0.9918  -0.2450 "Not Valid" "Not Valid" "Not Valid" "Not Valid" "Not Valid" "Not Valid" "Not Valid" "Not Valid" ""      1 "Study" "NO " "NO " "Default" "YES" "NO "   0.9000   1.1000 "   " "No"   0.0000   0.0000   1.0000 "" "" "" "" "" "NO " "NO " "NO " "NO " "NO " "NO " "NO "  0.100  1.100  0.010 ""
    43 "Kozienice"    220.00 1.090995 -13.754589   0.0000   0.0000      1      2      1 24 "NO " "Connected" "" "" "43 220" 240.0189  -0.240063   1.0597  -0.2594 "Not Valid" "Not Valid" "Not Valid" "Not Valid" "Not Valid" "Not Valid" "Not Valid" "Not Valid" ""      1 "Study" "NO " "NO " "Default" "YES" "NO "   0.9000   1.1000 "   " "No"   0.0000   0.0000   1.0000 "" "" "" "" "" "NO " "NO " "NO " "NO " "NO " "NO " "NO "  0.100  1.100  0.010 ""
    44 "Kozienice"    220.00 1.090960 -13.738987   0.0000   0.0000      1      2      1 24 "NO " "Connected" "" "" "44 220" 240.0112  -0.239791   1.0597  -0.2591 "Not Valid" "Not Valid" "Not Valid" "Not Valid" "Not Valid" "Not Valid" "Not Valid" "Not Valid" ""      1 "Study" "NO " "NO " "Default" "YES" "NO "   0.9000   1.1000 "   " "No"   0.0000   0.0000   1.0000 "" "" "" "" "" "NO " "NO " "NO " "NO " "NO " "NO " "NO "  0.100  1.100  0.010 ""
    45 "Kozienice"    400.00 1.032500 -13.607627   0.0000   0.0000      1      2      1 24 "NO " "Connected" "" "" "45 400" 413.0000  -0.237498   1.0035  -0.2429 "Not Valid" "Not Valid" "Not Valid" "Not Valid" "Not Valid" "Not Valid" "Not Valid" "Not Valid" ""      1 "Study" "NO " "NO " "Default" "YES" "NO "   0.9000   1.1000 "   " "No"   0.0000   0.0000   1.0000 "" "" "" "" "" "NO " "NO " "NO " "NO " "NO " "NO " "NO "  0.100  1.100  0.010 ""
    46 "46"           400.00 1.032454 -13.609594   0.0000   0.0000      1      2      1 24 "NO " "Connected" "" "" "46 400" 412.9815  -0.237532   1.0035  -0.2429 "Not Valid" "Not Valid" "Not Valid" "Not Valid" "Not Valid" "Not Valid" "Not Valid" "Not Valid" ""      1 "Study" "NO " "NO " "Default" "YES" "NO "   0.9000   1.1000 "   " "No"   0.0000   0.0000   1.0000 "" "" "" "" "" "NO " "NO " "NO " "NO " "NO " "NO " "NO "  0.100  1.100  0.010 ""
    47 "47"           220.00 1.101644 -14.248797   0.0000   0.0000      1      2      1 25 "NO " "Connected" "" "" "47 220" 242.3617  -0.248688   1.0678  -0.2712 "Not Valid" "Not Valid" "Not Valid" "Not Valid" "Not Valid" "Not Valid" "Not Valid" "Not Valid" ""      1 "Study" "NO " "NO " "Default" "YES" "NO "   0.9000   1.1000 "   " "No"   0.0000   0.0000   1.0000 "" "" "" "" "" "NO " "NO " "NO " "NO " "NO " "NO " "NO "  0.100  1.100  0.010 ""
    48 "48"           400.00 1.026138 -17.596288   0.0000   0.0000      1      2      1 26 "NO " "Connected" "" "" "48 400" 410.4553  -0.307113   0.9781  -0.3102 "Not Valid" "Not Valid" "Not Valid" "Not Valid" "Not Valid" "Not Valid" "Not Valid" "Not Valid" ""      1 "Study" "NO " "NO " "Default" "YES" "NO "   0.9000   1.1000 "   " "No"   0.0000   0.0000   1.0000 "" "" "" "" "" "NO " "NO " "NO " "NO " "NO " "NO " "NO "  0.100  1.100  0.010 ""
    49 "49"           400.00 1.026116 -17.601981   0.0000   0.0000      1      2      1 26 "NO " "Connected" "" "" "49 400" 410.4463  -0.307213   0.9781  -0.3103 "Not Valid" "Not Valid" "Not Valid" "Not Valid" "Not Valid" "Not Valid" "Not Valid" "Not Valid" ""      1 "Study" "NO " "NO " "Default" "YES" "NO "   0.9000   1.1000 "   " "No"   0.0000   0.0000   1.0000 "" "" "" "" "" "NO " "NO " "NO " "NO " "NO " "NO " "NO "  0.100  1.100  0.010 ""
    50 "50"           400.00 1.028012 -14.109465   0.0000   0.0000      1      2      1 27 "NO " "Connected" "" "" "50 400" 411.2049  -0.246257   0.9970  -0.2506 "Not Valid" "Not Valid" "Not Valid" "Not Valid" "Not Valid" "Not Valid" "Not Valid" "Not Valid" ""      1 "Study" "NO " "NO " "Default" "YES" "NO "   0.9000   1.1000 "   " "No"   0.0000   0.0000   1.0000 "" "" "" "" "" "NO " "NO " "NO " "NO " "NO " "NO " "NO "  0.100  1.100  0.010 ""
    51 "51"           220.00 1.086173 -15.320061   0.0000   0.0000      1      2      1 28 "NO " "Connected" "" "" "51 220" 238.9580  -0.267385   1.0476  -0.2870 "Not Valid" "Not Valid" "Not Valid" "Not Valid" "Not Valid" "Not Valid" "Not Valid" "Not Valid" ""      1 "Study" "NO " "NO " "Default" "YES" "NO "   0.9000   1.1000 "   " "No"   0.0000   0.0000   1.0000 "" "" "" "" "" "NO " "NO " "NO " "NO " "NO " "NO " "NO "  0.100  1.100  0.010 ""
    52 "52"           220.00 1.086178 -15.316911   0.0000   0.0000      1      2      1 28 "NO " "Connected" "" "" "52 220" 238.9592  -0.267331   1.0476  -0.2869 "Not Valid" "Not Valid" "Not Valid" "Not Valid" "Not Valid" "Not Valid" "Not Valid" "Not Valid" ""      1 "Study" "NO " "NO " "Default" "YES" "NO "   0.9000   1.1000 "   " "No"   0.0000   0.0000   1.0000 "" "" "" "" "" "NO " "NO " "NO " "NO " "NO " "NO " "NO "  0.100  1.100  0.010 ""
    53 "53"           400.00 1.034985 -14.375408   0.0000   0.0000      1      2      1 29 "NO " "Connected" "" "" "53 400" 413.9940  -0.250898   1.0026  -0.2570 "Not Valid" "Not Valid" "Not Valid" "Not Valid" "Not Valid" "Not Valid" "Not Valid" "Not Valid" ""      1 "Study" "NO " "NO " "Default" "YES" "NO "   0.9000   1.1000 "   " "No"   0.0000   0.0000   1.0000 "" "" "" "" "" "NO " "NO " "NO " "NO " "NO " "NO " "NO "  0.100  1.100  0.010 ""
    54 "54"           400.00 1.035005 -14.375702   0.0000   0.0000      1      2      1 29 "NO " "Connected" "" "" "54 400" 414.0022  -0.250903   1.0026  -0.2570 "Not Valid" "Not Valid" "Not Valid" "Not Valid" "Not Valid" "Not Valid" "Not Valid" "Not Valid" ""      1 "Study" "NO " "NO " "Default" "YES" "NO "   0.9000   1.1000 "   " "No"   0.0000   0.0000   1.0000 "" "" "" "" "" "NO " "NO " "NO " "NO " "NO " "NO " "NO "  0.100  1.100  0.010 ""
    55 "Polaniec"     220.00 1.091732 -13.677402   0.0000   0.0000      1      2      1 30 "NO " "Connected" "" "" "55 220" 240.1809  -0.238716   1.0608  -0.2581 "Not Valid" "Not Valid" "Not Valid" "Not Valid" "Not Valid" "Not Valid" "Not Valid" "Not Valid" ""      1 "Study" "NO " "NO " "Default" "YES" "NO "   0.9000   1.1000 "   " "No"   0.0000   0.0000   1.0000 "" "" "" "" "" "NO " "NO " "NO " "NO " "NO " "NO " "NO "  0.100  1.100  0.010 ""
    56 "Polaniec"     220.00 1.091712 -13.677351   0.0000   0.0000      1      2      1 30 "NO " "Connected" "" "" "56 220" 240.1766  -0.238715   1.0608  -0.2581 "Not Valid" "Not Valid" "Not Valid" "Not Valid" "Not Valid" "Not Valid" "Not Valid" "Not Valid" ""      1 "Study" "NO " "NO " "Default" "YES" "NO "   0.9000   1.1000 "   " "No"   0.0000   0.0000   1.0000 "" "" "" "" "" "NO " "NO " "NO " "NO " "NO " "NO " "NO "  0.100  1.100  0.010 ""
    57 "Polaniec"     400.00 1.037064 -14.001355   0.0000   0.0000      1      2      1 30 "NO " "Connected" "" "" "57 400" 414.8254  -0.244370   1.0063  -0.2509 "Not Valid" "Not Valid" "Not Valid" "Not Valid" "Not Valid" "Not Valid" "Not Valid" "Not Valid" ""      1 "Study" "NO " "NO " "Default" "YES" "NO "   0.9000   1.1000 "   " "No"   0.0000   0.0000   1.0000 "" "" "" "" "" "NO " "NO " "NO " "NO " "NO " "NO " "NO "  0.100  1.100  0.010 ""
    58 "Polaniec"     400.00 1.037050 -14.006141   0.0000   0.0000      1      2      1 30 "NO " "Connected" "" "" "58 400" 414.8202  -0.244453   1.0062  -0.2510 "Not Valid" "Not Valid" "Not Valid" "Not Valid" "Not Valid" "Not Valid" "Not Valid" "Not Valid" ""      1 "Study" "NO " "NO " "Default" "YES" "NO "   0.9000   1.1000 "   " "No"   0.0000   0.0000   1.0000 "" "" "" "" "" "NO " "NO " "NO " "NO " "NO " "NO " "NO "  0.100  1.100  0.010 ""
    59 "Pulawy"       220.00 1.084401 -14.798719   0.0000   0.0000      1      2      1 31 "NO " "Connected" "" "" "59 220" 238.5682  -0.258286   1.0484  -0.2770 "Not Valid" "Not Valid" "Not Valid" "Not Valid" "Not Valid" "Not Valid" "Not Valid" "Not Valid" ""      1 "Study" "NO " "NO " "Default" "YES" "NO "   0.9000   1.1000 "   " "No"   0.0000   0.0000   1.0000 "" "" "" "" "" "NO " "NO " "NO " "NO " "NO " "NO " "NO "  0.100  1.100  0.010 ""
    60 "60"           220.00 1.084475 -14.794690   0.0000   0.0000      1      2      1 31 "NO " "Connected" "" "" "60 220" 238.5844  -0.258216   1.0485  -0.2769 "Not Valid" "Not Valid" "Not Valid" "Not Valid" "Not Valid" "Not Valid" "Not Valid" "Not Valid" ""      1 "Study" "NO " "NO " "Default" "YES" "NO "   0.9000   1.1000 "   " "No"   0.0000   0.0000   1.0000 "" "" "" "" "" "NO " "NO " "NO " "NO " "NO " "NO " "NO "  0.100  1.100  0.010 ""
    61 "61"           220.00 1.097770 -14.381888   0.0000   0.0000      1      2      1 32 "NO " "Connected" "" "" "61 220" 241.5093  -0.251011   1.0634  -0.2727 "Not Valid" "Not Valid" "Not Valid" "Not Valid" "Not Valid" "Not Valid" "Not Valid" "Not Valid" ""      1 "Study" "NO " "NO " "Default" "YES" "NO "   0.9000   1.1000 "   " "No"   0.0000   0.0000   1.0000 "" "" "" "" "" "NO " "NO " "NO " "NO " "NO " "NO " "NO "  0.100  1.100  0.010 ""
    62 "62"           220.00 1.090228 -14.564088   0.0000   0.0000      1      2      1 33 "NO " "Connected" "" "" "62 220" 239.8501  -0.254191   1.0552  -0.2742 "Not Valid" "Not Valid" "Not Valid" "Not Valid" "Not Valid" "Not Valid" "Not Valid" "Not Valid" ""      1 "Study" "NO " "NO " "Default" "YES" "NO "   0.9000   1.1000 "   " "No"   0.0000   0.0000   1.0000 "" "" "" "" "" "NO " "NO " "NO " "NO " "NO " "NO " "NO "  0.100  1.100  0.010 ""
    63 "63"           220.00 1.090201 -14.565915   0.0000   0.0000      1      2      1 33 "NO " "Connected" "" "" "63 220" 239.8442  -0.254223   1.0552  -0.2742 "Not Valid" "Not Valid" "Not Valid" "Not Valid" "Not Valid" "Not Valid" "Not Valid" "Not Valid" ""      1 "Study" "NO " "NO " "Default" "YES" "NO "   0.9000   1.1000 "   " "No"   0.0000   0.0000   1.0000 "" "" "" "" "" "NO " "NO " "NO " "NO " "NO " "NO " "NO "  0.100  1.100  0.010 ""
    64 "64"           400.00 1.036749 -15.240286   0.0000   0.0000      1      2      1 34 "NO " "Connected" "" "" "64 400" 414.6994  -0.265993   1.0003  -0.2725 "Not Valid" "Not Valid" "Not Valid" "Not Valid" "Not Valid" "Not Valid" "Not Valid" "Not Valid" ""      1 "Study" "NO " "NO " "Default" "YES" "NO "   0.9000   1.1000 "   " "No"   0.0000   0.0000   1.0000 "" "" "" "" "" "NO " "NO " "NO " "NO " "NO " "NO " "NO "  0.100  1.100  0.010 ""
    65 "65"           400.00 1.036711 -15.251238   0.0000   0.0000      1      2      1 34 "NO " "Connected" "" "" "65 400" 414.6845  -0.266184   1.0002  -0.2727 "Not Valid" "Not Valid" "Not Valid" "Not Valid" "Not Valid" "Not Valid" "Not Valid" "Not Valid" ""      1 "Study" "NO " "NO " "Default" "YES" "NO "   0.9000   1.1000 "   " "No"   0.0000   0.0000   1.0000 "" "" "" "" "" "NO " "NO " "NO " "NO " "NO " "NO " "NO "  0.100  1.100  0.010 ""
    66 "66"           220.00 1.088887 -15.334540   0.0000   0.0000      1      2      1 35 "NO " "Connected" "" "" "66 220" 239.5552  -0.267638   1.0501  -0.2880 "Not Valid" "Not Valid" "Not Valid" "Not Valid" "Not Valid" "Not Valid" "Not Valid" "Not Valid" ""      1 "Study" "NO " "NO " "Default" "YES" "NO "   0.9000   1.1000 "   " "No"   0.0000   0.0000   1.0000 "" "" "" "" "" "NO " "NO " "NO " "NO " "NO " "NO " "NO "  0.100  1.100  0.010 ""
    67 "67"           220.00 1.089892 -15.177804   0.0000   0.0000      1      2      1 36 "NO " "Connected" "" "" "67 220" 239.7763  -0.264903   1.0519  -0.2854 "Not Valid" "Not Valid" "Not Valid" "Not Valid" "Not Valid" "Not Valid" "Not Valid" "Not Valid" ""      1 "Study" "NO " "NO " "Default" "YES" "NO "   0.9000   1.1000 "   " "No"   0.0000   0.0000   1.0000 "" "" "" "" "" "NO " "NO " "NO " "NO " "NO " "NO " "NO "  0.100  1.100  0.010 ""
    68 "68"           220.00 1.086283 -14.635790   0.0000   0.0000      1      2      1 37 "NO " "Connected" "" "" "68 220" 238.9822  -0.255443   1.0510  -0.2745 "Not Valid" "Not Valid" "Not Valid" "Not Valid" "Not Valid" "Not Valid" "Not Valid" "Not Valid" ""      1 "Study" "NO " "NO " "Default" "YES" "NO "   0.9000   1.1000 "   " "No"   0.0000   0.0000   1.0000 "" "" "" "" "" "NO " "NO " "NO " "NO " "NO " "NO " "NO "  0.100  1.100  0.010 ""
    69 "69"           220.00 1.084615  -9.408718   0.0000   0.0000      1      3      1 38 "NO " "Connected" "" "" "69 220" 238.6154  -0.164213   1.0700  -0.1773 "Not Valid" "Not Valid" "Not Valid" "Not Valid" "Not Valid" "Not Valid" "Not Valid" "Not Valid" ""      1 "Study" "NO " "NO " "Default" "YES" "NO "   0.9000   1.1000 "   " "No"   0.0000   0.0000   1.0000 "" "" "" "" "" "NO " "NO " "NO " "NO " "NO " "NO " "NO "  0.100  1.100  0.010 ""
    70 "70"           220.00 1.095187 -14.823342   0.0000   0.0000      1      3      1 39 "NO " "Connected" "" "" "70 220" 240.9411  -0.258716   1.0587  -0.2802 "Not Valid" "Not Valid" "Not Valid" "Not Valid" "Not Valid" "Not Valid" "Not Valid" "Not Valid" ""      1 "Study" "NO " "NO " "Default" "YES" "NO "   0.9000   1.1000 "   " "No"   0.0000   0.0000   1.0000 "" "" "" "" "" "NO " "NO " "NO " "NO " "NO " "NO " "NO "  0.100  1.100  0.010 ""
    71 "71"           220.00 1.095056 -14.831197   0.0000   0.0000      1      3      1 39 "NO " "Connected" "" "" "71 220" 240.9123  -0.258853   1.0586  -0.2803 "Not Valid" "Not Valid" "Not Valid" "Not Valid" "Not Valid" "Not Valid" "Not Valid" "Not Valid" ""      1 "Study" "NO " "NO " "Default" "YES" "NO "   0.9000   1.1000 "   " "No"   0.0000   0.0000   1.0000 "" "" "" "" "" "NO " "NO " "NO " "NO " "NO " "NO " "NO "  0.100  1.100  0.010 ""
    72 "72"           220.00 1.087576 -13.585092   0.0000   0.0000      1      3      1 41 "NO " "Connected" "" "" "72 220" 239.2666  -0.237105   1.0571  -0.2555 "Not Valid" "Not Valid" "Not Valid" "Not Valid" "Not Valid" "Not Valid" "Not Valid" "Not Valid" ""      1 "Study" "NO " "NO " "Default" "YES" "NO "   0.9000   1.1000 "   " "No"   0.0000   0.0000   1.0000 "" "" "" "" "" "NO " "NO " "NO " "NO " "NO " "NO " "NO "  0.100  1.100  0.010 ""
    73 "73"           220.00 1.087609 -13.569385   0.0000   0.0000      1      3      1 41 "NO " "Connected" "" "" "73 220" 239.2740  -0.236830   1.0573  -0.2552 "Not Valid" "Not Valid" "Not Valid" "Not Valid" "Not Valid" "Not Valid" "Not Valid" "Not Valid" ""      1 "Study" "NO " "NO " "Default" "YES" "NO "   0.9000   1.1000 "   " "No"   0.0000   0.0000   1.0000 "" "" "" "" "" "NO " "NO " "NO " "NO " "NO " "NO " "NO "  0.100  1.100  0.010 ""
    74 "74"           220.00 1.087854 -10.943293   0.0000   0.0000      1      3      1 42 "NO " "Connected" "" "" "74 220" 239.3279  -0.190996   1.0681  -0.2065 "Not Valid" "Not Valid" "Not Valid" "Not Valid" "Not Valid" "Not Valid" "Not Valid" "Not Valid" ""      1 "Study" "NO " "NO " "Default" "YES" "NO "   0.9000   1.1000 "   " "No"   0.0000   0.0000   1.0000 "" "" "" "" "" "NO " "NO " "NO " "NO " "NO " "NO " "NO "  0.100  1.100  0.010 ""
    75 "75"           220.00 1.087836 -10.948461   0.0000   0.0000      1      3      1 42 "NO " "Connected" "" "" "75 220" 239.3239  -0.191087   1.0680  -0.2066 "Not Valid" "Not Valid" "Not Valid" "Not Valid" "Not Valid" "Not Valid" "Not Valid" "Not Valid" ""      1 "Study" "NO " "NO " "Default" "YES" "NO "   0.9000   1.1000 "   " "No"   0.0000   0.0000   1.0000 "" "" "" "" "" "NO " "NO " "NO " "NO " "NO " "NO " "NO "  0.100  1.100  0.010 ""
    76 "76"           220.00 1.085714 -18.030129   0.0000   0.0000      1      3      1 43 "NO " "Connected" "" "" "76 220" 238.8570  -0.314685   1.0324  -0.3360 "Not Valid" "Not Valid" "Not Valid" "Not Valid" "Not Valid" "Not Valid" "Not Valid" "Not Valid" ""      1 "Study" "NO " "NO " "Default" "YES" "NO "   0.9000   1.1000 "   " "No"   0.0000   0.0000   1.0000 "" "" "" "" "" "NO " "NO " "NO " "NO " "NO " "NO " "NO "  0.100  1.100  0.010 ""
    77 "77"           220.00 1.085685 -18.042410   0.0000   0.0000      1      3      1 43 "NO " "Connected" "" "" "77 220" 238.8506  -0.314899   1.0323  -0.3363 "Not Valid" "Not Valid" "Not Valid" "Not Valid" "Not Valid" "Not Valid" "Not Valid" "Not Valid" ""      1 "Study" "NO " "NO " "Default" "YES" "NO "   0.9000   1.1000 "   " "No"   0.0000   0.0000   1.0000 "" "" "" "" "" "NO " "NO " "NO " "NO " "NO " "NO " "NO "  0.100  1.100  0.010 ""
    78 "Jaworzno"     220.00 1.090910 -12.507303   0.0000   0.0000      1      3      1 44 "NO " "Connected" "" "" "78 220" 240.0002  -0.218294   1.0650  -0.2363 "Not Valid" "Not Valid" "Not Valid" "Not Valid" "Not Valid" "Not Valid" "Not Valid" "Not Valid" ""      1 "Study" "NO " "NO " "Default" "YES" "NO "   0.9000   1.1000 "   " "No"   0.0000   0.0000   1.0000 "" "" "" "" "" "NO " "NO " "NO " "NO " "NO " "NO " "NO "  0.100  1.100  0.010 ""
    79 "Jaworzno"     220.00 1.090340 -13.073292   0.0000   0.0000      1      3      1 44 "NO " "Connected" "" "" "79 220" 239.8748  -0.228172   1.0621  -0.2466 "Not Valid" "Not Valid" "Not Valid" "Not Valid" "Not Valid" "Not Valid" "Not Valid" "Not Valid" ""      1 "Study" "NO " "NO " "Default" "YES" "NO "   0.9000   1.1000 "   " "No"   0.0000   0.0000   1.0000 "" "" "" "" "" "NO " "NO " "NO " "NO " "NO " "NO " "NO "  0.100  1.100  0.010 ""
    80 "80"           220.00 1.081762 -12.842772   0.0000   0.0000      1      3      1 45 "NO " "Connected" "" "" "80 220" 237.9876  -0.224149   1.0547  -0.2405 "Not Valid" "Not Valid" "Not Valid" "Not Valid" "Not Valid" "Not Valid" "Not Valid" "Not Valid" ""      1 "Study" "NO " "NO " "Default" "YES" "NO "   0.9000   1.1000 "   " "No"   0.0000   0.0000   1.0000 "" "" "" "" "" "NO " "NO " "NO " "NO " "NO " "NO " "NO "  0.100  1.100  0.010 ""
    81 "81"           220.00 1.081791 -12.846358   0.0000   0.0000      1      3      1 45 "NO " "Connected" "" "" "81 220" 237.9940  -0.224211   1.0547  -0.2405 "Not Valid" "Not Valid" "Not Valid" "Not Valid" "Not Valid" "Not Valid" "Not Valid" "Not Valid" ""      1 "Study" "NO " "NO " "Default" "YES" "NO "   0.9000   1.1000 "   " "No"   0.0000   0.0000   1.0000 "" "" "" "" "" "NO " "NO " "NO " "NO " "NO " "NO " "NO "  0.100  1.100  0.010 ""
    82 "Opole"        400.00 1.031186  -6.635393   0.0000   0.0000      1      3      1 46 "NO " "Connected" "" "" "82 400" 412.4746  -0.115809   1.0243  -0.1192 "Not Valid" "Not Valid" "Not Valid" "Not Valid" "Not Valid" "Not Valid" "Not Valid" "Not Valid" ""      1 "Study" "NO " "NO " "Default" "YES" "NO "   0.9000   1.1000 "   " "No"   0.0000   0.0000   1.0000 "" "" "" "" "" "NO " "NO " "NO " "NO " "NO " "NO " "NO "  0.100  1.100  0.010 ""
    83 "83"           220.00 1.088419 -10.552870   0.0000   0.0000      1      3      1 47 "NO " "Connected" "" "" "83 220" 239.4521  -0.184182   1.0700  -0.1993 "Not Valid" "Not Valid" "Not Valid" "Not Valid" "Not Valid" "Not Valid" "Not Valid" "Not Valid" ""      1 "Study" "NO " "NO " "Default" "YES" "NO "   0.9000   1.1000 "   " "No"   0.0000   0.0000   1.0000 "" "" "" "" "" "NO " "NO " "NO " "NO " "NO " "NO " "NO "  0.100  1.100  0.010 ""
    84 "84"           220.00 1.088513 -11.628320   0.0000   0.0000      1      3      1 48 "NO " "Connected" "" "" "84 220" 239.4729  -0.202952   1.0662  -0.2194 "Not Valid" "Not Valid" "Not Valid" "Not Valid" "Not Valid" "Not Valid" "Not Valid" "Not Valid" ""      1 "Study" "NO " "NO " "Default" "YES" "NO "   0.9000   1.1000 "   " "No"   0.0000   0.0000   1.0000 "" "" "" "" "" "NO " "NO " "NO " "NO " "NO " "NO " "NO "  0.100  1.100  0.010 ""
    85 "85"           220.00 1.088509 -11.638192   0.0000   0.0000      1      3      1 48 "NO " "Connected" "" "" "85 220" 239.4719  -0.203125   1.0661  -0.2196 "Not Valid" "Not Valid" "Not Valid" "Not Valid" "Not Valid" "Not Valid" "Not Valid" "Not Valid" ""      1 "Study" "NO " "NO " "Default" "YES" "NO "   0.9000   1.1000 "   " "No"   0.0000   0.0000   1.0000 "" "" "" "" "" "NO " "NO " "NO " "NO " "NO " "NO " "NO "  0.100  1.100  0.010 ""
    86 "86"           220.00 1.085016  -9.488955   0.0000   0.0000      1      3      1 49 "NO " "Connected" "" "" "86 220" 238.7036  -0.165614   1.0702  -0.1789 "Not Valid" "Not Valid" "Not Valid" "Not Valid" "Not Valid" "Not Valid" "Not Valid" "Not Valid" ""      1 "Study" "NO " "NO " "Default" "YES" "NO "   0.9000   1.1000 "   " "No"   0.0000   0.0000   1.0000 "" "" "" "" "" "NO " "NO " "NO " "NO " "NO " "NO " "NO "  0.100  1.100  0.010 ""
    87 "87"           220.00 1.085006  -9.494274   0.0000   0.0000      1      3      1 49 "NO " "Connected" "" "" "87 220" 238.7013  -0.165706   1.0701  -0.1790 "Not Valid" "Not Valid" "Not Valid" "Not Valid" "Not Valid" "Not Valid" "Not Valid" "Not Valid" ""      1 "Study" "NO " "NO " "Default" "YES" "NO "   0.9000   1.1000 "   " "No"   0.0000   0.0000   1.0000 "" "" "" "" "" "NO " "NO " "NO " "NO " "NO " "NO " "NO "  0.100  1.100  0.010 ""
    88 "88"           220.00 1.085065 -11.606791   0.0000   0.0000      1      3      1 50 "NO " "Connected" "" "" "88 220" 238.7143  -0.202577   1.0629  -0.2183 "Not Valid" "Not Valid" "Not Valid" "Not Valid" "Not Valid" "Not Valid" "Not Valid" "Not Valid" ""      1 "Study" "NO " "NO " "Default" "YES" "NO "   0.9000   1.1000 "   " "No"   0.0000   0.0000   1.0000 "" "" "" "" "" "NO " "NO " "NO " "NO " "NO " "NO " "NO "  0.100  1.100  0.010 ""
    89 "89"           220.00 1.085057 -11.613916   0.0000   0.0000      1      3      1 50 "NO " "Connected" "" "" "89 220" 238.7126  -0.202701   1.0628  -0.2184 "Not Valid" "Not Valid" "Not Valid" "Not Valid" "Not Valid" "Not Valid" "Not Valid" "Not Valid" ""      1 "Study" "NO " "NO " "Default" "YES" "NO "   0.9000   1.1000 "   " "No"   0.0000   0.0000   1.0000 "" "" "" "" "" "NO " "NO " "NO " "NO " "NO " "NO " "NO "  0.100  1.100  0.010 ""
    90 "90"           220.00 1.087144  -9.037134   0.0000   0.0000      1      3      1 51 "NO " "Connected" "" "" "90 220" 239.1718  -0.157728   1.0736  -0.1708 "Not Valid" "Not Valid" "Not Valid" "Not Valid" "Not Valid" "Not Valid" "Not Valid" "Not Valid" ""      1 "Study" "NO " "NO " "Default" "YES" "NO "   0.9000   1.1000 "   " "No"   0.0000   0.0000   1.0000 "" "" "" "" "" "NO " "NO " "NO " "NO " "NO " "NO " "NO "  0.100  1.100  0.010 ""
    91 "91"           220.00 1.087148  -9.032723   0.0000   0.0000      1      3      1 51 "NO " "Connected" "" "" "91 220" 239.1725  -0.157651   1.0737  -0.1707 "Not Valid" "Not Valid" "Not Valid" "Not Valid" "Not Valid" "Not Valid" "Not Valid" "Not Valid" ""      1 "Study" "NO " "NO " "Default" "YES" "NO "   0.9000   1.1000 "   " "No"   0.0000   0.0000   1.0000 "" "" "" "" "" "NO " "NO " "NO " "NO " "NO " "NO " "NO "  0.100  1.100  0.010 ""
    92 "92"           400.00 1.035285  -6.763576   0.0000   0.0000      1      3      1 51 "NO " "Connected" "" "" "92 400" 414.1141  -0.118047   1.0281  -0.1219 "Not Valid" "Not Valid" "Not Valid" "Not Valid" "Not Valid" "Not Valid" "Not Valid" "Not Valid" ""      1 "Study" "NO " "NO " "Default" "YES" "NO "   0.9000   1.1000 "   " "No"   0.0000   0.0000   1.0000 "" "" "" "" "" "NO " "NO " "NO " "NO " "NO " "NO " "NO "  0.100  1.100  0.010 ""
...